BASE/DGS.dgs
$$General;ID(a:40);Descr(a:40);Val(a:40)
1;Version;5.0

$$ElmNet;ID(a:40);loc_name(a:40);frnom(r);pDiagram(p)
2;obratec;60;3

$$IntGrfnet;ID(a:40);loc_name(a:40);snap_on(i);grid_on(i);ortho_on(i);pDataFolder(p)
3;obratec;0;1;0;2

$$TypCon;ID(a:40);loc_name(a:40);uline(r);sline(r);ncsub(i);dsubc(r);rpha(r);diaco(r);erpha(r);rpha_tmax(r)
4;AL_13.3;33;0.85;1;0.1;2.17;4.66;1.69;2.18
5;AL_16;33;0.1;1;0.1;2.09;5.1;1.8513;2.1
6;AL_21.1;33;0.114;1;0.1;1.58;5.88;2.14;1.59
7;AL_25;33;0.125;1;0.1;1.31;6.5;2.3595;1.32
8;AL_33.6;33;0.153;1;0.1;0.996;7.42;2.69;1.006
9;AL_35;33;0.16;1;0.1;0.952;7.6;2.7588;0.962
10;AL_42.4;33;0.176;1;0.1;0.79;8.33;3.02;0.8
11;AL_50;33;0.195;1;0.1;0.663;9.1;3.3033;0.673
12;AL_53.5;33;0.204;1;0.1;0.626;9.36;3.4;0.636
13;AL_70;33;0.235;1;0.1;0.484;10.8;4.09;0.494
14;AL_85.1;33;0.273;1;0.1;0.394;11.94;4.31;0.404
15;AL_95;33;0.3;1;0.1;0.352;12.6;4.7754;0.362
16;AL_107.2;33;0.316;1;0.1;0.312;13.4;5.08;0.322
17;AL_120;33;0.34;1;0.1;0.275;14.3;5.4;0.285
18;AL_127;33;0.351;1;0.1;0.264;14.62;5.61;0.274
19;AL_150;33;0.395;1;0.1;0.227;15.8;6.241;0.237
20;AL_185;33;0.455;1;0.1;0.181;17.7;6.9915;0.191
21;AL_240;33;0.545;1;0.1;0.142;20;7.9;0.152
22;AL_253;33;0.576;1;0.1;0.132;20.67;7.94;0.142
23;AL_300;33;0.625;1;0.1;0.11;22.7;9.3297;0.12
24;AL_400;33;0.755;1;0.1;0.0862;25.7;10.5627;0.0962
25;CU_10;27;0.106;1;0.1;1.87;4;1.452;1.88
26;CU_13.3;27;0.116;1;0.1;1.375;4.66;1.69;1.385
27;CU_16;27;0.141;1;0.1;1.17;5.1;1.8513;1.18
28;CU_21.2;27;0.154;1;0.1;0.863;5.88;2.14;0.873
29;CU_25;27;0.188;1;0.1;0.741;6.4;2.3232;0.751
30;CU_35;27;0.229;1;0.1;0.524;7.5;2.7225;0.534
31;CU_42.4;27;0.239;1;0.1;0.431;8.43;3.19;0.441
32;CU_50;27;0.277;1;0.1;0.395;8.9;3.3731;0.405
33;CU_67.4;27;0.319;1;0.1;0.271;10.63;4.03;0.281
34;CU_70;27;0.348;1;0.1;0.273;10.68;4.04772;0.283
35;CU_95;27;0.425;1;0.1;0.197;12.5;4.7375;0.207
36;CU_120;27;0.495;1;0.1;0.156;14.1;5.3439;0.166
37;CU_254;27;0.728;1;0.1;0.072;20.66;7.94;0.08199999999999999

$$TypGeo;ID(a:40);loc_name(a:40);nlear(i);nlcir(i);xy_e:SIZEROW(i);xy_e:SIZECOL(i);xy_e:0:0(r);xy_e:0:1(r);xy_c:SIZEROW(i);xy_c:SIZECOL(i);xy_c:0:0(r);xy_c:0:1(r);xy_c:0:2(r);xy_c:0:3(r);xy_c:0:4(r);xy_c:0:5(r);xy_c:0:6(r)
38;10_1;0;1;0;2;;;1;7;1;-1;0;0;10;0;0
39;10_1_1;1;1;1;2;0;9;1;7;1;-1;0;0;10;0;0
40;10_2;0;1;0;2;;;1;7;2;-0.5;0.5;0;10;10;0
41;10_2_1;1;1;1;2;0;9;1;7;2;-0.5;0.5;0;10;10;0
42;10_3;0;1;0;2;;;1;7;3;-0.8;0;0.8;10;10.3;10
43;10_3_1;1;1;1;2;0;9;1;7;3;-0.8;0;0.8;10;10.3;10
44;13.2_1;0;1;0;2;;;1;7;1;-1.2;0;0;10;0;0
45;13.2_1_1;1;1;1;2;0;9;1;7;1;-0.5;0;0;10;0;0
46;13.2_2;0;1;0;2;;;1;7;2;-0.5;0.5;0;10;10;0
47;13.2_2_1;1;1;1;2;0;9;1;7;2;-0.5;0.5;0;10;10;0
48;13.2_3;0;1;0;2;;;1;7;3;-1;0;1;10;10.4;10
49;13.2_3_1;1;1;1;2;0;9;1;7;3;-1;0;1;10;10.4;10
50;22.9_1;0;1;0;2;;;1;7;1;-1.2;0;0;10;0;0
51;22.9_1_1;1;1;1;2;0;9;1;7;1;-1.2;0;0;10;0;0
52;22.9_2;0;1;0;2;;;1;7;2;0;0.8;0;10.5;10;0
53;22.9_2_1;1;1;1;2;0;9;1;7;2;1;-1;0;10.5;10.5;0
54;22.9_3;0;1;0;2;;;1;7;3;-1.2;0;1.2;10;10.5;10
55;22.9_3_1;1;1;1;2;0;9;1;7;3;-1.2;0;1.2;10;10.5;10

$$TypLne;ID(a:40);loc_name(a:40);Ithr(r);aohl_(a:3);bline(r);bline0(r);nlnph(i);nneutral(i);rline(r);rline0(r);rtemp(r);sline(r);uline(r);xline(r);xline0(r)
56;N2XSY050;7.2;cab;80;70;3;0;0.494;1.482;150;0.23;30;0.1711;0.5133
57;N2XSY070;10;cab;80;70;3;0;0.342;1.026;150;0.28;30;0.1622;0.4866
58;N2XSY095;13.6;cab;80;70;3;0;0.247;0.741;150;0.33;30;0.1539;0.4617
59;N2XSY120;17.2;cab;80;70;3;0;0.196;0.588;150;0.375;30;0.1471;0.4413
60;N2XSY150;21.5;cab;80;70;3;0;0.159;0.477;150;0.415;30;0.143;0.429
61;N2XSY185;26.5;cab;80;70;3;0;0.128;0.384;150;0.47;30;0.1379;0.4137
62;N2XSY240;34.3;cab;80;70;3;0;0.098;0.294;150;0.545;30;0.1317;0.3951
63;N2XSY300;42.9;cab;80;70;3;0;0.08;0.24;150;0.61;30;0.1278;0.3834
64;N2XSY400;56.9;cab;80;70;3;0;0.064;0.192;150;0.685;30;0.123;0.369
65;N2XSY500;70.9;cab;80;70;3;0;0.052;0.156;150;0.765;30;0.1194;0.3582
66;NKY016;6.75;cab;63.4586;63.4586;3;0;1.361;1.361;150;0.075;15;0.136;0.136
67;NKY025;9;cab;71.31258;71.31258;3;0;0.8701;0.8701;150;0.1;15;0.1277;0.1277
68;NKY035;8;cab;77.28161;77.28161;3;0;0.6273;0.6273;150;0.12;15;0.1278;0.1278
69;NKY050;9.5;cab;85.44975;85.44975;3;0;0.4635;0.4635;150;0.145;15;0.1201;0.1201
70;NKY070;11.5;cab;92.98957;92.98957;3;0;0.3213;0.3213;150;0.18;15;0.1128;0.1128
71;NKY095;13.75;cab;101.4709;101.4709;3;0;0.2319;0.2319;150;0.22;15;0.1084;0.1084
72;NKY120;15.6;cab;108.3743;108.3743;3;0;0.1843;0.1843;150;0.255;15;0.1065;0.1065
73;NKY125;16;cab;108.3743;108.3743;3;0;0.1843;0.1843;150;0.255;15;0.1065;0.1065
74;NKY150;17.5;cab;115.2939;115.2939;3;0;0.1499;0.1499;150;0.29;15;0.1026;0.1026
75;NKY185;19.7;cab;121.5771;121.5771;3;0;0.1206;0.1206;150;0.335;15;0.1002;0.1002
76;NKY240;22.75;cab;129.4311;129.4311;3;0;0.0929;0.0929;150;0.395;15;0.097;0.097
77;NKY300;31.25;cab;137.5983;137.5983;3;0;0.0753;0.0753;150;0.445;15;0.0947;0.0947

$$TypTr2;ID(a:40);loc_name(a:40);strn(r);frnom(r);nt2ph;utrn_h(r);utrn_l(r);uktr(r);pcutr(r);tr2cn_h(a:2);tr2cn_l(a:2);nt2ag(i);curmg(r);pfe(r);tap_side(i);dutap(r);nntap0(i);ntpmn(i);ntpmx(i)
78;1.5_22.9_3;0.0015;60;3;22.9;0.4;4;0.03;D;YN;5;1;0.015;0;2.5;3;1;5
79;3_22.9_3;0.003;60;3;22.9;0.4;4;0.0991;D;YN;5;1;0.0261;0;2.5;3;1;5
80;5_22.9_3;0.005;60;3;22.9;0.4;4;0.1325;D;YN;5;1;0.04099999999999999;0;2.5;3;1;5
81;6_22.9_3;0.006;60;3;22.9;0.4;4;0.148;D;YN;5;1;0.0472;0;2.5;3;1;5
82;7.5_22.9_3;0.0075;60;3;22.9;0.4;4;0.1713;D;YN;5;1;0.0565;0;2.5;3;1;5
83;8_22.9_3;0.008;60;3;22.9;0.4;4;0.179;D;YN;5;1;0.0596;0;2.5;3;1;5
84;8.6_22.9_3;0.0086;60;3;22.9;0.4;4;0.1883;D;YN;5;1;0.0633;0;2.5;3;1;5
85;8.7_22.9_3;0.0087;60;3;22.9;0.4;4;0.1899;D;YN;5;1;0.0639;0;2.5;3;1;5
86;10_22.9_3;0.01;60;3;22.9;0.4;4;0.21;D;YN;5;1;0.072;0;2.5;3;1;5
87;15_22.9_3;0.015;60;3;22.9;0.4;4;0.315;D;YN;5;1;0.09;0;2.5;3;1;5
88;16_22.9_3;0.016;60;3;22.9;0.4;4;0.331;D;YN;5;1;0.0953;0;2.5;3;1;5
89;16.4_22.9_3;0.0164;60;3;22.9;0.4;4;0.3374;D;YN;5;1;0.0974;0;2.5;3;1;5
90;17.2_22.9_3;0.0172;60;3;22.9;0.4;4;0.3502;D;YN;5;1;0.1016;0;2.5;3;1;5
91;17.4_22.9_3;0.0174;60;3;22.9;0.4;4;0.3534;D;YN;5;1;0.1026;0;2.5;3;1;5
92;18_22.9_3;0.018;60;3;22.9;0.4;4;0.363;D;YN;5;1;0.1058;0;2.5;3;1;5
93;20_22.9_3;0.02;60;3;22.9;0.4;4;0.395;D;YN;5;1;0.1163;0;2.5;3;1;5
94;21_22.9_3;0.021;60;3;22.9;0.4;4;0.411;D;YN;5;1;0.1215;0;2.5;3;1;5
95;22_22.9_3;0.022;60;3;22.9;0.4;4;0.427;D;YN;5;1;0.1268;0;2.5;3;1;5
96;22.62_22.9_3;0.02262;60;3;22.9;0.4;4;0.4369;D;YN;5;1;0.13;0;2.5;3;1;5
97;22.9_22.9_3;0.0229;60;3;22.9;0.4;4;0.4414;D;YN;5;1;0.1315;0;2.5;3;1;5
98;25_22.9_3;0.025;60;3;22.9;0.4;4;0.475;D;YN;5;1;0.1425;0;2.5;3;1;5
99;26_22.9_3;0.026;60;3;22.9;0.4;4;0.4934;D;YN;5;1;0.1473;0;2.5;3;1;5
100;26.1_22.9_3;0.0261;60;3;22.9;0.4;4;0.4952;D;YN;5;1;0.1478;0;2.5;3;1;5
101;28_22.9_3;0.028;60;3;22.9;0.4;4;0.5302;D;YN;5;1;0.1569;0;2.5;3;1;5
102;30_22.9_3;0.03;60;3;22.9;0.4;4;0.567;D;YN;5;1;0.1665;0;2.5;3;1;5
103;30.45_22.9_3;0.03045;60;3;22.9;0.4;4;0.5753;D;YN;5;1;0.1687;0;2.5;3;1;5
104;32_22.9_3;0.032;60;3;22.9;0.4;4;0.6038;D;YN;5;1;0.1761;0;2.5;3;1;5
105;32.7_22.9_3;0.0327;60;3;22.9;0.4;4;0.6167;D;YN;5;1;0.1795;0;2.5;3;1;5
106;35_22.9_3;0.035;60;3;22.9;0.4;4;0.659;D;YN;5;1;0.1905;0;2.5;3;1;5
107;35.5_22.9_3;0.0355;60;3;22.9;0.4;4;0.6682;D;YN;5;1;0.1929;0;2.5;3;1;5
108;37.5_22.9_3;0.0375;60;3;22.9;0.4;4;0.705;D;YN;5;1;0.2025;0;2.5;3;1;5
109;40_22.9_3;0.04;60;3;22.9;0.4;4;0.749;D;YN;5;1;0.214;0;2.5;3;1;5
110;43_22.9_3;0.043;60;3;22.9;0.4;4;0.8018;D;YN;5;1;0.2278;0;2.5;3;1;5
111;43.5_22.9_3;0.0435;60;3;22.9;0.4;4;0.8106;D;YN;5;1;0.2301;0;2.5;3;1;5
112;44_22.9_3;0.044;60;3;22.9;0.4;4;0.8194;D;YN;5;1;0.2324;0;2.5;3;1;5
113;45_22.9_3;0.045;60;3;22.9;0.4;4;0.837;D;YN;5;1;0.237;0;2.5;3;1;5
114;50_22.9_3;0.05;60;3;22.9;0.4;4;0.925;D;YN;5;1;0.26;0;2.5;3;1;5
115;54.37_22.9_3;0.05436999999999999;60;3;22.9;0.4;4;1.0006;D;YN;5;1;0.2775;0;2.5;3;1;5
116;60_22.9_3;0.06;60;3;22.9;0.4;4;1.098;D;YN;5;1;0.3;0;2.5;3;1;5
117;60.3_22.9_3;0.0603;60;3;22.9;0.4;4;1.1032;D;YN;5;1;0.3012;0;2.5;3;1;5
118;62.25_22.9_3;0.06225;60;3;22.9;0.4;4;1.1369;D;YN;5;1;0.309;0;2.5;3;1;5
119;62.5_22.9_3;0.0625;60;3;22.9;0.4;4;1.1413;D;YN;5;1;0.31;0;2.5;3;1;5
120;64_22.9_3;0.064;60;3;22.9;0.4;4;1.1672;D;YN;5;1;0.316;0;2.5;3;1;5
121;64.5_22.9_3;0.0645;60;3;22.9;0.4;4;1.1759;D;YN;5;1;0.318;0;2.5;3;1;5
122;65_22.9_3;0.065;60;3;22.9;0.4;4;1.1845;D;YN;5;1;0.32;0;2.5;3;1;5
123;65.2_22.9_3;0.06520000000000001;60;3;22.9;0.4;4;1.188;D;YN;5;1;0.3208;0;2.5;3;1;5
124;65.25_22.9_3;0.06525;60;3;22.9;0.4;4;1.1888;D;YN;5;1;0.321;0;2.5;3;1;5
125;67.5_22.9_3;0.0675;60;3;22.9;0.4;4;1.2278;D;YN;5;1;0.33;0;2.5;3;1;5
126;70_22.9_3;0.07;60;3;22.9;0.4;4;1.271;D;YN;5;1;0.34;0;2.5;3;1;5
127;75_22.9_3;0.075;60;3;22.9;0.4;4;1.3575;D;YN;5;1;0.36;0;2.5;3;1;5
128;76_22.9_3;0.076;60;3;22.9;0.4;4;1.372;D;YN;5;1;0.3632;0;2.5;3;1;5
129;77.5_22.9_3;0.0775;60;3;22.9;0.4;4;1.3938;D;YN;5;1;0.368;0;2.5;3;1;5
130;80_22.9_3;0.08;60;3;22.9;0.4;4;1.43;D;YN;5;1;0.376;0;2.5;3;1;5
131;80.5_22.9_3;0.0805;60;3;22.9;0.4;4;1.4373;D;YN;5;1;0.3776;0;2.5;3;1;5
132;87_22.9_3;0.087;60;3;22.9;0.4;4;1.5315;D;YN;5;1;0.3984;0;2.5;3;1;5
133;87.5_22.9_3;0.0875;60;3;22.9;0.4;4;1.5388;D;YN;5;1;0.4;0;2.5;3;1;5
134;90_22.9_3;0.09;60;3;22.9;0.4;4;1.575;D;YN;5;1;0.408;0;2.5;3;1;5
135;98_22.9_3;0.098;60;3;22.9;0.4;4;1.691;D;YN;5;1;0.4336;0;2.5;3;1;5
136;100_22.9_3;0.1;60;3;22.9;0.4;4;1.72;D;YN;5;1;0.44;0;2.5;3;1;5
137;108_22.9_3;0.108;60;3;22.9;0.4;4;1.836;D;YN;5;1;0.468;0;2.5;3;1;5
138;112_22.9_3;0.112;60;3;22.9;0.4;4;1.894;D;YN;5;1;0.482;0;2.5;3;1;5
139;112.5_22.9_3;0.1125;60;3;22.9;0.4;4;1.9013;D;YN;5;1;0.4838;0;2.5;3;1;5
140;120_22.9_3;0.12;60;3;22.9;0.4;4;2.01;D;YN;5;1;0.51;0;2.5;3;1;5
141;122.5_22.9_3;0.1225;60;3;22.9;0.4;4;2.0463;D;YN;5;1;0.5188;0;2.5;3;1;5
142;125_22.9_3;0.125;60;3;22.9;0.4;4;2.0825;D;YN;5;1;0.5275;0;2.5;3;1;5
143;129_22.9_3;0.129;60;3;22.9;0.4;4;2.1405;D;YN;5;1;0.5415;0;2.5;3;1;5
144;130_22.9_3;0.13;60;3;22.9;0.4;4;2.155;D;YN;5;1;0.545;0;2.5;3;1;5
145;130.5_22.9_3;0.1305;60;3;22.9;0.4;4;2.1623;D;YN;5;1;0.5468;0;2.5;3;1;5
146;144_22.9_3;0.144;60;3;22.9;0.4;4;2.358;D;YN;5;1;0.594;0;2.5;3;1;5
147;150_22.9_3;0.15;60;3;22.9;0.4;4;2.445;D;YN;5;1;0.6149999999999999;0;2.5;3;1;5
148;155_22.9_3;0.155;60;3;22.9;0.4;4;2.51;D;YN;5;1;0.6295;0;2.5;3;1;5
149;160_22.9_3;0.16;60;3;22.9;0.4;4;2.575;D;YN;5;1;0.644;0;2.5;3;1;5
150;175_22.9_3;0.175;60;3;22.9;0.4;4;2.77;D;YN;5;1;0.6875;0;2.5;3;1;5
151;180_22.9_3;0.18;60;3;22.9;0.4;4;2.835;D;YN;5;1;0.702;0;2.5;3;1;5
152;200_22.9_3;0.2;60;3;22.9;0.4;4;3.095;D;YN;5;1;0.76;0;2.5;3;1;5
153;210_22.9_3;0.21;60;3;22.9;0.4;4;3.225;D;YN;5;1;0.789;0;2.5;3;1;5
154;215_22.9_3;0.215;60;3;22.9;0.4;4;3.29;D;YN;5;1;0.8035;0;2.5;3;1;5
155;217_22.9_3;0.217;60;3;22.9;0.4;4;3.316;D;YN;5;1;0.8093;0;2.5;3;1;5
156;225_22.9_3;0.225;60;3;22.9;0.4;4;3.42;D;YN;5;1;0.8325;0;2.5;3;1;5
157;250_22.9_3;0.25;60;3;22.9;0.4;4;3.74;D;YN;5;1;0.905;0;2.5;3;1;5
158;260_22.9_3;0.26;60;3;22.9;0.4;4;3.868;D;YN;5;1;0.934;0;2.5;3;1;5
159;300_22.9_3;0.3;60;3;22.9;0.4;4;4.38;D;YN;5;1;1.05;0;2.5;3;1;5
160;315_22.9_3;0.315;60;3;22.9;0.4;4;4.5653;D;YN;5;1;1.0838;0;2.5;3;1;5
161;320_22.9_3;0.32;60;3;22.9;0.4;4;4.627;D;YN;5;1;1.095;0;2.5;3;1;5
162;350_22.9_3;0.35;60;3;22.9;0.4;4;4.9975;D;YN;5;1;1.1625;0;2.5;3;1;5
163;360_22.9_3;0.36;60;3;22.9;0.4;4;5.121;D;YN;5;1;1.185;0;2.5;3;1;5
164;365_22.9_3;0.365;60;3;22.9;0.4;4;5.1828;D;YN;5;1;1.1963;0;2.5;3;1;5
165;375_22.9_3;0.375;60;3;22.9;0.4;4;5.3063;D;YN;5;1;1.2188;0;2.5;3;1;5
166;400_22.9_3;0.4;60;3;22.9;0.4;4;5.615;D;YN;5;1;1.275;0;2.5;3;1;5
167;450_22.9_3;0.45;60;3;22.9;0.4;4;6.2325;D;YN;5;1;1.3875;0;2.5;3;1;5
168;500_22.9_3;0.5;60;3;22.9;0.4;5;6.85;D;YN;5;1;1.5;0;2.5;3;1;5
169;575_22.9_3;0.575;60;3;22.9;0.4;5;7.7775;D;YN;5;1;1.6333;0;2.5;3;1;5
170;630_22.9_3;0.63;60;3;22.9;0.4;5;8.4577;D;YN;5;1;1.7311;0;2.5;3;1;5
171;650_22.9_3;0.65;60;3;22.9;0.4;5;8.705;D;YN;5;1;1.7667;0;2.5;3;1;5
172;700_22.9_3;0.7;60;3;22.9;0.4;5;9.3233;D;YN;5;1;1.8556;0;2.5;3;1;5
173;750_22.9_3;0.75;60;3;22.9;0.4;5;9.9417;D;YN;5;1;1.9444;0;2.5;3;1;5
174;800_22.9_3;0.8;60;3;22.9;0.4;5;10.56;D;YN;5;1;2.0333;0;2.5;3;1;5
175;850_22.9_3;0.85;60;3;22.9;0.4;5;11.1783;D;YN;5;1;2.1222;0;2.5;3;1;5
176;1000_22.9_3;1;60;3;22.9;0.4;5;13.0333;D;YN;5;1;2.3889;0;2.5;3;1;5
177;1250_22.9_3;1.25;60;3;22.9;0.4;5;16.125;D;YN;5;1;2.8333;0;2.5;3;1;5
178;2500_22.9_3;2.5;60;3;22.9;0.4;5;31.5833;D;YN;5;1;5.0556;0;2.5;3;1;5
179;3300_22.9_3;3.3;60;3;22.9;0.4;5;41.4767;D;YN;5;1;6.4778;0;2.5;3;1;5
180;5000_22.9_3;5;60;3;22.9;0.4;5;62.5;D;YN;5;1;9.5;0;2.5;3;1;5
181;1.5_22.9_2;0.0015;60;2;22.9;0.4;3;0.0397;D;YN;0;1;0.0123;0;2.5;3;1;5
182;2.5_22.9_2;0.0025;60;2;22.9;0.4;3;0.0569;D;YN;0;1;0.0216;0;2.5;3;1;5
183;2.6_22.9_2;0.0026;60;2;22.9;0.4;3;0.0586;D;YN;0;1;0.0225;0;2.5;3;1;5
184;3_22.9_2;0.003;60;2;22.9;0.4;3;0.0656;D;YN;0;1;0.0263;0;2.5;3;1;5
185;5_22.9_2;0.005;60;2;22.9;0.4;3;0.1;D;YN;0;1;0.045;0;2.5;3;1;5
186;6_22.9_2;0.006;60;2;22.9;0.4;3;0.1208;D;YN;0;1;0.0502;0;2.5;3;1;5
187;6.5_22.9_2;0.0065;60;2;22.9;0.4;3;0.1312;D;YN;0;1;0.0528;0;2.5;3;1;5
188;7.5_22.9_2;0.0075;60;2;22.9;0.4;3;0.152;D;YN;0;1;0.058;0;2.5;3;1;5
189;8_22.9_2;0.008;60;2;22.9;0.4;3;0.1624;D;YN;0;1;0.0606;0;2.5;3;1;5
190;8.7_22.9_2;0.0087;60;2;22.9;0.4;3;0.177;D;YN;0;1;0.0642;0;2.5;3;1;5
191;10_22.9_2;0.01;60;2;22.9;0.4;3;0.204;D;YN;0;1;0.071;0;2.5;3;1;5
192;10.5_22.9_2;0.0105;60;2;22.9;0.4;3;0.2118;D;YN;0;1;0.0723;0;2.5;3;1;5
193;11.5_22.9_2;0.0115;60;2;22.9;0.4;3;0.2274;D;YN;0;1;0.0749;0;2.5;3;1;5
194;13_22.9_2;0.013;60;2;22.9;0.4;3;0.2508;D;YN;0;1;0.0788;0;2.5;3;1;5
195;13.2_22.9_2;0.0132;60;2;22.9;0.4;3;0.2539;D;YN;0;1;0.0793;0;2.5;3;1;5
196;15_22.9_2;0.015;60;2;22.9;0.4;3;0.282;D;YN;0;1;0.084;0;2.5;3;1;5
197;16_22.9_2;0.016;60;2;22.9;0.4;3;0.2961;D;YN;0;1;0.0874;0;2.5;3;1;5
198;16.5_22.9_2;0.0165;60;2;22.9;0.4;3;0.3031;D;YN;0;1;0.089;0;2.5;3;1;5
199;17_22.9_2;0.017;60;2;22.9;0.4;3;0.3101;D;YN;0;1;0.0907;0;2.5;3;1;5
200;18_22.9_2;0.018;60;2;22.9;0.4;3;0.3242;D;YN;0;1;0.0941;0;2.5;3;1;5
201;19_22.9_2;0.019;60;2;22.9;0.4;3;0.3382;D;YN;0;1;0.0974;0;2.5;3;1;5
202;20_22.9_2;0.02;60;2;22.9;0.4;3;0.3523;D;YN;0;1;0.1008;0;2.5;3;1;5
203;22.5_22.9_2;0.0225;60;2;22.9;0.4;3;0.3874;D;YN;0;1;0.1091;0;2.5;3;1;5
204;25_22.9_2;0.025;60;2;22.9;0.4;3;0.4225;D;YN;0;1;0.1175;0;2.5;3;1;5
205;26_22.9_2;0.026;60;2;22.9;0.4;3;0.4337;D;YN;0;1;0.1213;0;2.5;3;1;5
206;26.1_22.9_2;0.0261;60;2;22.9;0.4;3;0.4348;D;YN;0;1;0.1217;0;2.5;3;1;5
207;28_22.9_2;0.028;60;2;22.9;0.4;3;0.4561;D;YN;0;1;0.1289;0;2.5;3;1;5
208;30_22.9_2;0.03;60;2;22.9;0.4;3;0.4785;D;YN;0;1;0.1365;0;2.5;3;1;5
209;35_22.9_2;0.035;60;2;22.9;0.4;3;0.5345;D;YN;0;1;0.1555;0;2.5;3;1;5
210;35.5_22.9_2;0.0355;60;2;22.9;0.4;3;0.5401;D;YN;0;1;0.1574;0;2.5;3;1;5
211;37_22.9_2;0.037;60;2;22.9;0.4;3;0.5569;D;YN;0;1;0.1631;0;2.5;3;1;5
212;37.5_22.9_2;0.0375;60;2;22.9;0.4;3;0.5625;D;YN;0;1;0.165;0;2.5;3;1;5
213;38_22.9_2;0.038;60;2;22.9;0.4;3;0.5688;D;YN;0;1;0.1658;0;2.5;3;1;5
214;40_22.9_2;0.04;60;2;22.9;0.4;3;0.594;D;YN;0;1;0.169;0;2.5;3;1;5
215;43.5_22.9_2;0.0435;60;2;22.9;0.4;3;0.6381;D;YN;0;1;0.1746;0;2.5;3;1;5
216;45_22.9_2;0.045;60;2;22.9;0.4;3;0.657;D;YN;0;1;0.177;0;2.5;3;1;5
217;47.5_22.9_2;0.0475;60;2;22.9;0.4;3;0.6885;D;YN;0;1;0.181;0;2.5;3;1;5
218;50_22.9_2;0.05;60;2;22.9;0.4;3;0.72;D;YN;0;1;0.185;0;2.5;3;1;5
219;52.5_22.9_2;0.0525;60;2;22.9;0.4;3;0.7463;D;YN;0;1;0.1958;0;2.5;3;1;5
220;55_22.9_2;0.055;60;2;22.9;0.4;3;0.7725;D;YN;0;1;0.2065;0;2.5;3;1;5
221;62.5_22.9_2;0.0625;60;2;22.9;0.4;3;0.8513;D;YN;0;1;0.2388;0;2.5;3;1;5
222;65_22.9_2;0.065;60;2;22.9;0.4;3;0.8775;D;YN;0;1;0.2495;0;2.5;3;1;5
223;65.25_22.9_2;0.06525;60;2;22.9;0.4;3;0.8801;D;YN;0;1;0.2506;0;2.5;3;1;5
224;70_22.9_2;0.07;60;2;22.9;0.4;3;0.93;D;YN;0;1;0.271;0;2.5;3;1;5
225;75_22.9_2;0.075;60;2;22.9;0.4;3;0.9825;D;YN;0;1;0.2925;0;2.5;3;1;5
226;80_22.9_2;0.08;60;2;22.9;0.4;3;1.042;D;YN;0;1;0.306;0;2.5;3;1;5
227;87.5_22.9_2;0.0875;60;2;22.9;0.4;3;1.1313;D;YN;0;1;0.3263;0;2.5;3;1;5
228;100_22.9_2;0.1;60;2;22.9;0.4;3;1.28;D;YN;0;1;0.36;0;2.5;3;1;5
229;160_22.9_2;0.16;60;2;22.9;0.4;3;2.0181;D;YN;0;1;0.5012;0;2.5;3;1;5
230;167_22.9_2;0.167;60;2;22.9;0.4;3;2.1042;D;YN;0;1;0.5177;0;2.5;3;1;5
231;200_22.9_2;0.2;60;2;22.9;0.4;3;2.6592;D;YN;0;1;0.5504;0;2.5;3;1;5
232;1.5_22.9_1;0.0015;60;1;22.9;0.46;3;0.0397;YN;YN;0;1;0.0123;0;2.5;3;1;5
233;2.5_22.9_1;0.0025;60;1;22.9;0.46;3;0.0569;YN;YN;0;1;0.0216;0;2.5;3;1;5
234;2.6_22.9_1;0.0026;60;1;22.9;0.46;3;0.0586;YN;YN;0;1;0.0225;0;2.5;3;1;5
235;3_22.9_1;0.003;60;1;22.9;0.46;3;0.0656;YN;YN;0;1;0.0263;0;2.5;3;1;5
236;5_22.9_1;0.005;60;1;22.9;0.46;3;0.1;YN;YN;0;1;0.045;0;2.5;3;1;5
237;6_22.9_1;0.006;60;1;22.9;0.46;3;0.1208;YN;YN;0;1;0.0502;0;2.5;3;1;5
238;6.5_22.9_1;0.0065;60;1;22.9;0.46;3;0.1312;YN;YN;0;1;0.0528;0;2.5;3;1;5
239;7.5_22.9_1;0.0075;60;1;22.9;0.46;3;0.152;YN;YN;0;1;0.058;0;2.5;3;1;5
240;8_22.9_1;0.008;60;1;22.9;0.46;3;0.1624;YN;YN;0;1;0.0606;0;2.5;3;1;5
241;8.7_22.9_1;0.0087;60;1;22.9;0.46;3;0.177;YN;YN;0;1;0.0642;0;2.5;3;1;5
242;10_22.9_1;0.01;60;1;22.9;0.46;3;0.204;YN;YN;0;1;0.071;0;2.5;3;1;5
243;10.5_22.9_1;0.0105;60;1;22.9;0.46;3;0.2118;YN;YN;0;1;0.0723;0;2.5;3;1;5
244;11.5_22.9_1;0.0115;60;1;22.9;0.46;3;0.2274;YN;YN;0;1;0.0749;0;2.5;3;1;5
245;13_22.9_1;0.013;60;1;22.9;0.46;3;0.2508;YN;YN;0;1;0.0788;0;2.5;3;1;5
246;13.2_22.9_1;0.0132;60;1;22.9;0.46;3;0.2539;YN;YN;0;1;0.0793;0;2.5;3;1;5
247;15_22.9_1;0.015;60;1;22.9;0.46;3;0.282;YN;YN;0;1;0.084;0;2.5;3;1;5
248;16_22.9_1;0.016;60;1;22.9;0.46;3;0.2961;YN;YN;0;1;0.0874;0;2.5;3;1;5
249;16.5_22.9_1;0.0165;60;1;22.9;0.46;3;0.3031;YN;YN;0;1;0.089;0;2.5;3;1;5
250;17_22.9_1;0.017;60;1;22.9;0.46;3;0.3101;YN;YN;0;1;0.0907;0;2.5;3;1;5
251;18_22.9_1;0.018;60;1;22.9;0.46;3;0.3242;YN;YN;0;1;0.0941;0;2.5;3;1;5
252;19_22.9_1;0.019;60;1;22.9;0.46;3;0.3382;YN;YN;0;1;0.0974;0;2.5;3;1;5
253;20_22.9_1;0.02;60;1;22.9;0.46;3;0.3523;YN;YN;0;1;0.1008;0;2.5;3;1;5
254;22.5_22.9_1;0.0225;60;1;22.9;0.46;3;0.3874;YN;YN;0;1;0.1091;0;2.5;3;1;5
255;25_22.9_1;0.025;60;1;22.9;0.46;3;0.4225;YN;YN;0;1;0.1175;0;2.5;3;1;5
256;26_22.9_1;0.026;60;1;22.9;0.46;3;0.4337;YN;YN;0;1;0.1213;0;2.5;3;1;5
257;26.1_22.9_1;0.0261;60;1;22.9;0.46;3;0.4348;YN;YN;0;1;0.1217;0;2.5;3;1;5
258;28_22.9_1;0.028;60;1;22.9;0.46;3;0.4561;YN;YN;0;1;0.1289;0;2.5;3;1;5
259;30_22.9_1;0.03;60;1;22.9;0.46;3;0.4785;YN;YN;0;1;0.1365;0;2.5;3;1;5
260;35_22.9_1;0.035;60;1;22.9;0.46;3;0.5345;YN;YN;0;1;0.1555;0;2.5;3;1;5
261;35.5_22.9_1;0.0355;60;1;22.9;0.46;3;0.5401;YN;YN;0;1;0.1574;0;2.5;3;1;5
262;37_22.9_1;0.037;60;1;22.9;0.46;3;0.5569;YN;YN;0;1;0.1631;0;2.5;3;1;5
263;37.5_22.9_1;0.0375;60;1;22.9;0.46;3;0.5625;YN;YN;0;1;0.165;0;2.5;3;1;5
264;38_22.9_1;0.038;60;1;22.9;0.46;3;0.5688;YN;YN;0;1;0.1658;0;2.5;3;1;5
265;40_22.9_1;0.04;60;1;22.9;0.46;3;0.594;YN;YN;0;1;0.169;0;2.5;3;1;5
266;43.5_22.9_1;0.0435;60;1;22.9;0.46;3;0.6381;YN;YN;0;1;0.1746;0;2.5;3;1;5
267;45_22.9_1;0.045;60;1;22.9;0.46;3;0.657;YN;YN;0;1;0.177;0;2.5;3;1;5
268;47.5_22.9_1;0.0475;60;1;22.9;0.46;3;0.6885;YN;YN;0;1;0.181;0;2.5;3;1;5
269;50_22.9_1;0.05;60;1;22.9;0.46;3;0.72;YN;YN;0;1;0.185;0;2.5;3;1;5
270;52.5_22.9_1;0.0525;60;1;22.9;0.46;3;0.7463;YN;YN;0;1;0.1958;0;2.5;3;1;5
271;55_22.9_1;0.055;60;1;22.9;0.46;3;0.7725;YN;YN;0;1;0.2065;0;2.5;3;1;5
272;62.5_22.9_1;0.0625;60;1;22.9;0.46;3;0.8513;YN;YN;0;1;0.2388;0;2.5;3;1;5
273;65_22.9_1;0.065;60;1;22.9;0.46;3;0.8775;YN;YN;0;1;0.2495;0;2.5;3;1;5
274;65.25_22.9_1;0.06525;60;1;22.9;0.46;3;0.8801;YN;YN;0;1;0.2506;0;2.5;3;1;5
275;70_22.9_1;0.07;60;1;22.9;0.46;3;0.93;YN;YN;0;1;0.271;0;2.5;3;1;5
276;75_22.9_1;0.075;60;1;22.9;0.46;3;0.9825;YN;YN;0;1;0.2925;0;2.5;3;1;5
277;80_22.9_1;0.08;60;1;22.9;0.46;3;1.042;YN;YN;0;1;0.306;0;2.5;3;1;5
...

$$TypChatoc;ID(a:40);loc_name(a:40);i_use(a:4)
693;MeltCurve_200;1
694;MeltCurve_140;1
695;MeltCurve_100;1
696;MeltCurve_80;1
697;MeltCurve_65;1
698;MeltCurve_50;1
699;MeltCurve_40;1
700;MeltCurve_30;1
701;MeltCurve_20;1
702;MeltCurve_15;1
703;MeltCurve_12;1
704;MeltCurve_10;1
705;MeltCurve_8;1
706;MeltCurve_7;1
707;MeltCurve_6;1
708;MeltCurve_5;1
709;MeltCurve_3;1
710;MeltCurve_2;1
711;MeltCurve_1;1

$$TypFuse;ID(a:40);loc_name(a:40);urat(r);irat(r);frq(r);iopt_typ(a:2);pmelt(p)
712;200;27;200;60;MV;693
713;140;27;140;60;MV;694
714;100;27;100;60;MV;695
715;80;27;80;60;MV;696
716;65;27;65;60;MV;697
717;50;27;50;60;MV;698
718;40;27;40;60;MV;699
719;30;27;30;60;MV;700
720;20;27;20;60;MV;701
721;15;27;15;60;MV;702
722;12;27;12;60;MV;703
723;10;27;10;60;MV;704
724;8;27;8;60;MV;705
725;7;27;7;60;MV;706
726;6;27;6;60;MV;707
727;5;27;5;60;MV;708
728;3;27;3;60;MV;709
729;2;27;2;60;MV;710
730;1;27;1;60;MV;711

$$ElmLne;ID(a:40);loc_name(a:40);fold_id(p);typ_id(p);dline(r);pCondCir(p);pCondGnd(p);sagCir(r);sagGnd(r)
731;1884802;2;42;0.0111400003433228;36;;1;0
732;1882751;2;42;0.0666699981689453;7;;1;0
733;1882810;2;42;0.0680199966430664;7;;1;0
734;1882811;2;42;0.109290000915527;13;;1;0
735;1882812;2;42;0.08343000030517579;13;;1;0
736;1882813;2;42;0.082;7;;1;0
737;1882814;2;42;0.051;7;;1;0
738;1882815;2;42;0.05;7;;1;0
739;1882816;2;42;0.028;7;;1;0
740;1882817;2;42;0.102;7;;1;0
741;1882818;2;42;0.035799999237060495;7;;1;0
742;1882819;2;42;0.0131000003814697;7;;1;0
743;1882820;2;42;0.059069999694824196;7;;1;0
744;1882821;2;42;0.0650899963378906;7;;1;0
745;1882822;2;42;0.091;7;;1;0
746;1882823;2;42;0.0317000007629395;7;;1;0
747;1882824;2;42;0.07;7;;1;0
748;1882825;2;42;0.0925;7;;1;0
749;1882826;2;42;0.00501999998092651;7;;1;0
750;1882827;2;42;0.0125;7;;1;0
751;1882828;2;42;0.0893000030517578;7;;1;0
752;1882829;2;42;0.058;7;;1;0
753;1882830;2;42;0.01;7;;1;0
754;1882831;2;42;0.0835;7;;1;0
755;1882832;2;42;0.09259999847412109;7;;1;0
756;1882833;2;42;0.104;7;;1;0
757;1882834;2;42;0.0325;7;;1;0
758;1882835;2;42;0.0915;7;;1;0
759;1882836;2;42;0.06;7;;1;0
760;1882837;2;42;0.032;7;;1;0
761;1883452;2;42;0.0462400016784668;27;;1;0
762;1883453;2;42;0.06540000152587891;27;;1;0
763;1883454;2;42;0.026920000076293898;27;;1;0
764;1883455;2;42;0.034900001525878896;27;;1;0
765;1883456;2;42;0.0195699996948242;27;;1;0
766;1883461;2;42;0.0555999984741211;7;;1;0
767;1883462;2;42;0.00201289439201355;7;;1;0
768;1883463;2;42;0.0222999992370605;7;;1;0
769;1883464;2;42;0.08909999847412109;7;;1;0
770;1883465;2;42;0.0715;7;;1;0
771;1883466;2;42;0.0685;7;;1;0
772;1883467;2;42;0.0711500015258789;7;;1;0
773;1883468;2;42;0.0704000015258789;7;;1;0
774;1883469;2;42;0.089;7;;1;0
775;1883470;2;42;0.0873000030517578;7;;1;0
776;1883471;2;42;0.08809999847412109;7;;1;0
777;1883472;2;42;0.07;7;;1;0
778;1883473;2;42;0.0778000030517578;7;;1;0
779;1883474;2;42;0.01;7;;1;0
780;1883548;2;42;0.0381599998474121;34;;1;0
781;1883549;2;42;0.0614000015258789;34;;1;0
782;1883550;2;42;0.050700000762939505;34;;1;0
783;1883551;2;42;0.0864000015258789;34;;1;0
784;1883552;2;42;0.060189998626709;34;;1;0
785;1883734;2;42;0.0387700004577637;27;;1;0
786;1883800;2;42;0.0874000015258789;7;;1;0
787;1883801;2;42;0.0155;7;;1;0
788;1883802;2;42;0.065;7;;1;0
789;1883804;2;42;0.0662099990844727;7;;1;0
790;1883805;2;42;0.08630000305175779;7;;1;0
791;1884437;2;42;0.005;32;;1;0
792;1884485;2;42;0.00254444527626038;27;;1;0
793;1884486;2;42;0.018569999694824202;30;;1;0
794;1884521;2;42;0.0348899993896484;34;;1;0
795;1884566;2;42;0.0302000007629395;7;;1;0
796;1884803;2;42;0.0142600002288818;36;;1;0
797;1884804;2;42;0.0291499996185303;36;;1;0
798;1884821;2;42;0.0150900001525879;27;;1;0
799;1884853;2;42;0.085;7;;1;0
800;1884854;2;42;0.0981999969482422;7;;1;0
801;1884855;2;42;0.0138900003433228;7;;1;0
802;1884856;2;42;0.0222999992370605;7;;1;0
803;1884893;2;42;0.0412263412475586;9;;1;0
804;1884894;2;42;0.08;9;;1;0
805;1884956;2;42;0.0607000007629395;34;;1;0
806;1884975;2;42;0.0319099998474121;13;;1;0
807;1885089;2;42;0.0482700004577637;27;;1;0
808;1885090;2;42;0.0660599975585938;27;;1;0
809;1885092;2;42;0.0552099990844727;27;;1;0
810;1885093;2;42;0.07501999664306641;9;;1;0
811;1885094;2;42;0.00792999982833862;9;;1;0
812;1885095;2;42;0.00578999996185303;9;;1;0
813;1885096;2;42;0.06718000030517579;9;;1;0
814;1885237;2;42;0.0390099983215332;9;;1;0
815;1885238;2;42;0.0726999969482422;9;;1;0
816;1885239;2;42;0.0766999969482422;9;;1;0
817;1885240;2;42;0.0744000015258789;9;;1;0
818;1885241;2;42;0.0742200012207031;9;;1;0
819;1885242;2;42;0.08;9;;1;0
820;1885243;2;42;0.07559999847412109;9;;1;0
821;1885244;2;42;0.056310001373291;9;;1;0
822;1885245;2;42;0.00811999988555908;9;;1;0
823;1885246;2;42;0.00703999996185303;9;;1;0
824;1885247;2;42;0.033;9;;1;0
825;1885252;2;42;0.0152299995422363;9;;1;0
826;1885253;2;42;0.0491699981689453;9;;1;0
827;1885462;2;42;0.0183600006103516;27;;1;0
828;1885463;2;42;0.0586199989318848;27;;1;0
829;1885464;2;42;0.056990001678466795;27;;1;0
830;1885465;2;42;0.034419998168945296;27;;1;0
831;1885530;2;42;0.0346300010681152;34;;1;0
832;1885717;2;42;0.0106999998092651;7;;1;0
833;1885718;2;42;0.0158000001907349;7;;1;0
834;1885719;2;42;0.0030999999046325702;7;;1;0
835;1885765;2;42;0.063;9;;1;0
836;1885766;2;42;0.0622999992370605;9;;1;0
837;1885767;2;42;0.022;9;;1;0
838;1885768;2;42;0.0305;9;;1;0
839;1885769;2;42;0.052;9;;1;0
840;1885826;2;42;0.0497099990844727;9;;1;0
841;1885827;2;42;0.00325;9;;1;0
842;1885828;2;42;0.0064000000953674295;9;;1;0
843;1885829;2;42;0.031;9;;1;0
844;1885830;2;42;0.020100000381469703;9;;1;0
845;1885831;2;42;0.07;9;;1;0
846;1885832;2;42;0.0621699981689453;9;;1;0
847;1885833;2;42;0.00910000038146973;9;;1;0
848;1885834;2;42;0.00392000007629395;9;;1;0
849;1885835;2;42;0.0567999992370605;9;;1;0
850;1885836;2;42;0.0289300003051758;9;;1;0
851;1885837;2;42;0.0485999984741211;9;;1;0
852;1885838;2;42;0.06;9;;1;0
853;1885839;2;42;0.06;9;;1;0
854;1885840;2;42;0.0562999992370605;9;;1;0
855;1885948;2;42;0.015;9;;1;0
856;1885949;2;42;0.07;9;;1;0
857;1885950;2;42;0.067;9;;1;0
858;1885951;2;42;0.03;9;;1;0
859;1885962;2;42;0.0534000015258789;9;;1;0
860;1885963;2;42;0.058;9;;1;0
861;1886028;2;42;0.0343499984741211;9;;1;0
862;1886029;2;42;0.0749300003051758;9;;1;0
863;1886030;2;42;0.0054000000953674295;9;;1;0
864;1886031;2;42;0.00860000038146973;9;;1;0
865;1886032;2;42;0.0551500015258789;9;;1;0
866;1886033;2;42;0.041240001678466795;9;;1;0
867;1886034;2;42;0.0149499998092651;9;;1;0
868;1886035;2;42;0.007;9;;1;0
869;1886036;2;42;0.0566500015258789;9;;1;0
870;1886037;2;42;0.0575;9;;1;0
871;1886038;2;42;0.0296000003814697;9;;1;0
872;1886039;2;42;0.0640999984741211;9;;1;0
873;1886040;2;42;0.0704000015258789;9;;1;0
874;1886041;2;42;0.0691999969482422;9;;1;0
875;1886042;2;42;0.0679499969482422;9;;1;0
876;1886043;2;42;0.0532999992370605;9;;1;0
877;1886044;2;42;0.059830001831054705;9;;1;0
878;1886045;2;42;0.0301000003814697;9;;1;0
879;1886046;2;42;0.0360999984741211;9;;1;0
880;1886047;2;42;0.057799999237060494;9;;1;0
881;1886104;2;42;0.047;9;;1;0
882;1886105;2;42;0.0364000015258789;9;;1;0
883;1886109;2;42;0.029;9;;1;0
884;1886110;2;42;0.039;9;;1;0
885;1886111;2;42;0.0725;9;;1;0
886;1886112;2;42;0.07119999694824221;9;;1;0
887;1886113;2;42;0.067;9;;1;0
888;1886114;2;42;0.07;9;;1;0
889;1886115;2;42;0.0685;9;;1;0
890;1886116;2;42;0.0215;9;;1;0
891;1886117;2;42;0.00496999979019165;9;;1;0
892;1886118;2;42;0.009;9;;1;0
893;1886119;2;42;0.0545;9;;1;0
894;1886120;2;42;0.000680000007152557;9;;1;0
895;1886136;2;42;0.03;9;;1;0
896;1886137;2;42;0.075;9;;1;0
897;1886138;2;42;0.078;9;;1;0
898;1886139;2;42;0.0619700012207031;9;;1;0
899;1886140;2;42;0.0171800003051758;9;;1;0
900;1886141;2;42;0.009;9;;1;0
901;1886171;2;42;0.011659999847412101;9;;1;0
902;1886172;2;42;0.071;9;;1;0
903;1886173;2;42;0.06769000244140631;9;;1;0
904;1886174;2;42;0.073;9;;1;0
905;1886462;2;42;0.066;9;;1;0
906;1886546;2;42;0.077;9;;1;0
907;1886547;2;42;0.046;9;;1;0
908;1886694;2;42;0.0156499996185303;29;;1;0
909;1886698;2;42;0.0178600006103516;30;;1;0
910;1886711;2;42;0.0857799987792969;29;;1;0
911;1886712;2;42;0.0663600006103516;29;;1;0
912;1886716;2;42;0.0206700000762939;29;;1;0
913;1886722;2;42;0.0198400001525879;29;;1;0
914;1886723;2;42;0.0514599990844727;29;;1;0
915;1886818;2;42;0.074;29;;1;0
916;1886819;2;42;0.072;29;;1;0
917;1886820;2;42;0.0758000030517578;29;;1;0
918;1886821;2;42;0.0765;29;;1;0
919;1886889;2;42;0.009119999885559081;32;;1;0
920;1889118;2;42;0.013460000038147;29;;1;0
921;1889119;2;42;0.058830001831054704;29;;1;0
922;1889120;2;42;0.018819999694824202;29;;1;0
923;1889153;2;42;0.0635200004577637;29;;1;0
924;1889154;2;42;0.02675;29;;1;0
925;1889155;2;42;0.0898399963378906;30;;1;0
926;1889156;2;42;0.0891699981689453;30;;1;0
927;1889157;2;42;0.08555000305175779;30;;1;0
928;1889158;2;42;0.08761000061035161;30;;1;0
929;1889165;2;42;0.07484999847412109;30;;1;0
930;1889186;2;42;0.0645;29;;1;0
...

$$ElmSubstat;ID(a:40);loc_name(a:40);fold_id(p);Unom(r);GPSlon(r);GPSlat(r)
1156;BARRA0;2;10.0;-81.10164977;-5.08630043
1157;E160001;2;10.0;-81.10181157;-5.08646055
1158;E160002;2;10.0;-81.10018433;-5.0883962
1159;E160003;2;10.0;-81.09894323;-5.08823362
1160;E160004;2;10.0;-81.09702321;-5.09096961
1161;E160005;2;10.0;-81.09809176;-5.09323388
1162;E160006;2;10.0;-81.10016517;-5.08971546
1163;E160012;2;10.0;-81.1004467;-5.09321492
1164;E160013;2;10.0;-81.10261582;-5.09380899
1165;E160015;2;10.0;-81.09953143;-5.09516621
1166;E160016;2;10.0;-81.09761482;-5.09454776
1167;E160017;2;10.0;-81.09873085;-5.09651265
1168;E160018;2;10.0;-81.10080471;-5.09731734
1169;E160019;2;10.0;-81.10388813;-5.09712414
1170;E160021;2;10.0;-81.10781752;-5.09743729
1171;E160023;2;10.0;-81.10582611;-5.09814194
1172;E160032;2;10.0;-81.09816079;-5.08769885
1173;E160034;2;10.0;-81.09685596;-5.08876844
1174;E160035;2;10.0;-81.09402894;-5.0899901
1175;E160036;2;10.0;-81.08844358;-5.093248
1176;E160037;2;10.0;-81.0938295;-5.09120459
1177;E160038;2;10.0;-81.09551481;-5.09202873
1178;E160039;2;10.0;-81.09531701;-5.09446291
1179;E160040;2;10.0;-81.09422918;-5.09511146
1180;E160041;2;10.0;-81.09683724;-5.09627129
1181;E160219;2;10.0;-81.09210826;-5.0961721
1182;E160220;2;10.0;-81.09088324;-5.09464675
1183;E160221;2;10.0;-81.0939406;-5.09718814
1184;E160222;2;10.0;-81.09453622;-5.09736201
1185;E160223;2;10.0;-81.0966948;-5.0983184
1186;E160224;2;10.0;-81.09804333;-5.09929702
1187;E160225;2;10.0;-81.09645367;-5.09919045
1188;E160226;2;10.0;-81.09753447;-5.10107715
1189;E160227;2;10.0;-81.09600658;-5.10067356
1190;E160228;2;10.0;-81.10225902;-5.10072729
1191;E160229;2;10.0;-81.10441563;-5.10056554
1192;E160230;2;10.0;-81.1056918;-5.10154575
1193;E160231;2;10.0;-81.1041814;-5.1013947
1194;E160232;2;10.0;-81.10372222;-5.10293629
1195;E160233;2;10.0;-81.10526476;-5.10299118
1196;E160234;2;10.0;-81.08853779;-5.09374173
1197;E160263;2;10.0;-81.10133409;-5.08713911
1198;E160289;2;10.0;-81.08939376;-5.09536914
1199;E160328;2;10.0;-81.10727773;-5.10487799
1200;E160329;2;10.0;-81.10200855;-5.10383986
1201;E160330;2;10.0;-81.09703746;-5.1024692
1202;E160331;2;10.0;-81.09446317;-5.10010236
1203;E160339;2;10.0;-81.08853494;-5.0937546
1204;E160346;2;10.0;-81.08606267;-5.09319228
1205;E160347;2;10.0;-81.08214389;-5.09569781
1206;E160349;2;10.0;-81.09847428;-5.08775554
1207;E160361;2;10.0;-81.09292298;-5.10137542
1208;E160362;2;10.0;-81.08706;-5.09813234
1209;E160369;2;10.0;-81.10038534;-5.10186409
1210;E160378;2;10.0;-81.09675503;-5.1034339
1211;E160379;2;10.0;-81.09981119;-5.1051882
1212;E160380;2;10.0;-81.0885892;-5.09727561
1213;E160393;2;10.0;-81.079473;-5.09467635
1214;E160403;2;10.0;-81.08967929;-5.1000843
1215;E160404;2;10.0;-81.08874848;-5.10107978
1216;E160411;2;10.0;-81.0868149;-5.09124196
1217;E160420;2;10.0;-81.09070663;-5.0918156
1218;E160421;2;10.0;-81.1043738;-5.1063203
1219;E160422;2;10.0;-81.10309738;-5.10637457
1220;E160423;2;10.0;-81.10215645;-5.10671705
1221;E160426;2;10.0;-81.08466894;-5.0994302
1222;E160452;2;10.0;-81.10712408;-5.10734299
1223;E160455;2;10.0;-81.10066422;-5.09394554
1224;E160457;2;10.0;-81.10724932;-5.10610261
1225;E160458;2;10.0;-81.0969828;-5.10503188
1226;E160466;2;10.0;-81.09915041;-5.10762483
1227;E160472;2;10.0;-81.09007976;-5.10391417
1228;E160485;2;10.0;-81.10598147;-5.09641011
1229;E160490;2;10.0;-81.10347417;-5.10897377
1230;E160492;2;10.0;-81.07843612;-5.095475

$$ElmLod;ID(a:40);loc_name(a:40);fold_id(p);slini(r);coslini(r);scale0(r);NrCust(i)
1231;E160001;1157;0.16;0.95;0.1046;1
1232;E160002;1158;0.1;0.95;0.1046;1
1233;E160003;1159;0.46;0.95;0.1046;1
1234;E160004;1160;0.16;0.95;0.1046;364
1235;E160005;1161;0.16;0.95;0.1046;315
1236;E160006;1162;0.16;0.95;0.1046;236
1237;E160012;1163;0.075;0.95;0.1046;100
1238;E160013;1164;0.16;0.95;0.1046;502
1239;E160015;1165;0.16;0.95;0.1046;359
1240;E160016;1166;0.1;0.95;0.1046;160
1241;E160017;1167;0.125;0.95;0.1046;133
1242;E160018;1168;0.125;0.95;0.1046;165
1243;E160019;1169;0.16;0.95;0.1046;343
1244;E160021;1170;0.16;0.95;0.1046;328
1245;E160023;1171;0.16;0.95;0.1046;207
1246;E160032;1172;0.175;0.95;0.1046;1
1247;E160034;1173;0.16;0.95;0.1046;221
1248;E160035;1174;0.04;0.95;0.1046;1
1249;E160036;1175;0.025;0.95;0.1046;1
1250;E160037;1176;0.16;0.95;0.1046;187
1251;E160038;1177;0.16;0.95;0.1046;126
1252;E160039;1178;0.1;0.95;0.1046;254
1253;E160040;1179;0.16;0.95;0.1046;230
1254;E160041;1180;0.2;0.95;0.1046;195
1255;E160219;1181;0.05;0.95;0.1046;157
1256;E160220;1182;0.05;0.95;0.1046;192
1257;E160221;1183;0.05;0.95;0.1046;214
1258;E160222;1184;0.05;0.95;0.1046;156
1259;E160223;1185;0.05;0.95;0.1046;139
1260;E160224;1186;0.05;0.95;0.1046;151
1261;E160225;1187;0.05;0.95;0.1046;178
1262;E160226;1188;0.05;0.95;0.1046;182
1263;E160227;1189;0.05;0.95;0.1046;167
1264;E160228;1190;0.05;0.95;0.1046;135
1265;E160229;1191;0.075;0.95;0.1046;149
1266;E160230;1192;0.05;0.95;0.1046;178
1267;E160231;1193;0.075;0.95;0.1046;181
1268;E160232;1194;0.05;0.95;0.1046;169
1269;E160233;1195;0.05;0.95;0.1046;165
1270;E160234;1196;0.025;0.95;0.1046;1
1271;E160263;1197;0.01;0.95;0.1046;1
1272;E160289;1198;0.075;0.95;0.1046;146
1273;E160328;1199;0.0375;0.95;0.1046;58
1274;E160329;1200;0.1;0.95;0.1046;385
1275;E160330;1201;0.0375;0.95;0.1046;155
1276;E160331;1202;0.0375;0.95;0.1046;79
1277;E160339;1203;0.025;0.95;0.1046;1
1278;E160346;1204;0.1;0.95;0.1046;244
1279;E160347;1205;0.075;0.95;0.1046;109
1280;E160349;1206;0.16;0.95;0.1046;29
1281;E160361;1207;0.025;0.95;0.1046;130
1282;E160362;1208;0.0375;0.95;0.1046;82
1283;E160369;1209;0.075;0.95;0.1046;1
1284;E160378;1210;0.0375;0.95;0.1046;86
1285;E160379;1211;0.1;0.95;0.1046;298
1286;E160380;1212;0.075;0.95;0.1046;179
1287;E160393;1213;0.63;0.95;0.1046;1
1288;E160403;1214;0.025;0.95;0.1046;71
1289;E160404;1215;0.025;0.95;0.1046;41
1290;E160411;1216;0.16;0.95;0.1046;53
1291;E160420;1217;0.63;0.95;0.1046;1
1292;E160421;1218;0.075;0.95;0.1046;199
1293;E160422;1219;0.075;0.95;0.1046;190
1294;E160423;1220;0.1;0.95;0.1046;256
1295;E160426;1221;0.5;0.95;0.1046;2
1296;E160452;1222;0.16;0.95;0.1046;334
1297;E160455;1223;0.25;0.95;0.1046;1
1298;E160457;1224;0.16;0.95;0.1046;1
1299;E160458;1225;0.075;0.95;0.1046;1
1300;E160466;1226;0.16;0.95;0.1046;34
1301;E160472;1227;0.25;0.95;0.1046;1
1302;E160485;1228;0.25;0.95;0.1046;1
1303;E160490;1229;0.1;0.95;0.1046;1
1304;E160492;1230;0.5;0.95;0.1046;1

$$ElmTr2;ID(a:40);loc_name(a:40);fold_id(p);typ_id(p);outserv(i);nntap(i);ntrcn(i);t2ldc(i)
1305;TR_E160001;1157;559;0;3;0;0
1306;TR_E160002;1158;546;0;3;0;0
1307;TR_E160003;1159;577;0;3;0;0
1308;TR_E160004;1160;559;0;3;0;0
1309;TR_E160005;1161;559;0;3;0;0
1310;TR_E160006;1162;559;0;3;0;0
1311;TR_E160012;1163;537;0;3;0;0
1312;TR_E160013;1164;559;0;3;0;0
1313;TR_E160015;1165;559;0;3;0;0
1314;TR_E160016;1166;546;0;3;0;0
1315;TR_E160017;1167;552;0;3;0;0
1316;TR_E160018;1168;552;0;3;0;0
1317;TR_E160019;1169;559;0;3;0;0
1318;TR_E160021;1170;559;0;3;0;0
1319;TR_E160023;1171;559;0;3;0;0
1320;TR_E160032;1172;560;0;3;0;0
1321;TR_E160034;1173;559;0;3;0;0
1322;TR_E160035;1174;519;0;3;0;0
1323;TR_E160036;1175;508;0;3;0;0
1324;TR_E160037;1176;559;0;3;0;0
1325;TR_E160038;1177;559;0;3;0;0
1326;TR_E160039;1178;546;0;3;0;0
1327;TR_E160040;1179;559;0;3;0;0
1328;TR_E160041;1180;562;0;3;0;0
1329;TR_E160219;1181;524;0;3;0;0
1330;TR_E160220;1182;524;0;3;0;0
1331;TR_E160221;1183;524;0;3;0;0
1332;TR_E160222;1184;524;0;3;0;0
1333;TR_E160223;1185;524;0;3;0;0
1334;TR_E160224;1186;524;0;3;0;0
1335;TR_E160225;1187;524;0;3;0;0
1336;TR_E160226;1188;524;0;3;0;0
1337;TR_E160227;1189;524;0;3;0;0
1338;TR_E160228;1190;524;0;3;0;0
1339;TR_E160229;1191;537;0;3;0;0
1340;TR_E160230;1192;524;0;3;0;0
1341;TR_E160231;1193;537;0;3;0;0
1342;TR_E160232;1194;524;0;3;0;0
1343;TR_E160233;1195;524;0;3;0;0
1344;TR_E160234;1196;508;0;3;0;0
1345;TR_E160263;1197;496;0;3;0;0
1346;TR_E160289;1198;537;0;3;0;0
1347;TR_E160328;1199;518;0;3;0;0
1348;TR_E160329;1200;546;0;3;0;0
1349;TR_E160330;1201;518;0;3;0;0
1350;TR_E160331;1202;518;0;3;0;0
1351;TR_E160339;1203;508;0;3;0;0
1352;TR_E160346;1204;546;0;3;0;0
1353;TR_E160347;1205;537;0;3;0;0
1354;TR_E160349;1206;559;0;3;0;0
1355;TR_E160361;1207;508;0;3;0;0
1356;TR_E160362;1208;518;0;3;0;0
1357;TR_E160369;1209;537;0;3;0;0
1358;TR_E160378;1210;518;0;3;0;0
1359;TR_E160379;1211;546;0;3;0;0
1360;TR_E160380;1212;537;0;3;0;0
1361;TR_E160393;1213;580;0;3;0;0
1362;TR_E160403;1214;508;0;3;0;0
1363;TR_E160404;1215;508;0;3;0;0
1364;TR_E160411;1216;559;0;3;0;0
1365;TR_E160420;1217;580;0;3;0;0
1366;TR_E160421;1218;537;0;3;0;0
1367;TR_E160422;1219;537;0;3;0;0
1368;TR_E160423;1220;546;0;3;0;0
1369;TR_E160426;1221;578;0;3;0;0
1370;TR_E160452;1222;559;0;3;0;0
1371;TR_E160455;1223;567;0;3;0;0
1372;TR_E160457;1224;559;0;3;0;0
1373;TR_E160458;1225;537;0;3;0;0
1374;TR_E160466;1226;559;0;3;0;0
1375;TR_E160472;1227;567;0;3;0;0
1376;TR_E160485;1228;567;0;3;0;0
1377;TR_E160490;1229;546;0;3;0;0
1378;TR_E160492;1230;578;0;3;0;0

$$ElmTerm;ID(a:40);loc_name(a:40);fold_id(p);iUsage(i);uknom(r);outserv(i);phtech(i);GPSlon(r);GPSlat(r);systype(i)
1379;1893695_P_1;1157;2;10.0;0;0;;;0
1380;1893695_P_2;1157;2;0.4;0;0;;;0
1381;1893695_P;1157;0;10.0;0;0;;;0
1382;1884821_P_1;1158;2;10.0;0;0;;;0
1383;1884821_P_2;1158;2;0.4;0;0;;;0
1384;1884821_P;1158;0;10.0;0;0;;;0
1385;1884486_P_1;1159;2;10.0;0;0;;;0
1386;1884486_P_2;1159;2;0.4;0;0;;;0
1387;1884486_P;1159;0;10.0;0;0;;;0
1388;1891551_P_1;1160;2;10.0;0;0;;;0
1389;1891551_P_2;1160;2;0.4;0;0;;;0
1390;1891551_P;1160;0;10.0;0;0;;;0
1391;1891557_P_1;1161;2;10.0;0;0;;;0
1392;1891557_P_2;1161;2;0.4;0;0;;;0
1393;1891557_P;1161;0;10.0;0;0;;;0
1394;1893959_P_1;1162;2;10.0;0;0;;;0
1395;1893959_P_2;1162;2;0.4;0;0;;;0
1396;1893959_P;1162;0;10.0;0;0;;;0
1397;1893367_P_1;1163;2;10.0;0;0;;;0
1398;1893367_P_2;1163;2;0.4;0;0;;;0
1399;1893367_P;1163;0;10.0;0;0;;;0
1400;1893937_P_1;1164;2;10.0;0;0;;;0
1401;1893937_P_2;1164;2;0.4;0;0;;;0
1402;1893937_P;1164;0;10.0;0;0;;;0
1403;1893374_P_1;1165;2;10.0;0;0;;;0
1404;1893374_P_2;1165;2;0.4;0;0;;;0
1405;1893374_P;1165;0;10.0;0;0;;;0
1406;1893384_P_1;1166;2;10.0;0;0;;;0
1407;1893384_P_2;1166;2;0.4;0;0;;;0
1408;1893384_P;1166;0;10.0;0;0;;;0
1409;1889190_P_1;1167;2;10.0;0;0;;;0
1410;1889190_P_2;1167;2;0.4;0;0;;;0
1411;1889190_P;1167;0;10.0;0;0;;;0
1412;1889186_P_1;1168;2;10.0;0;0;;;0
1413;1889186_P_2;1168;2;0.4;0;0;;;0
1414;1889186_P;1168;0;10.0;0;0;;;0
1415;1883456_P_1;1169;2;10.0;0;0;;;0
1416;1883456_P_2;1169;2;0.4;0;0;;;0
1417;1883456_P;1169;0;10.0;0;0;;;0
1418;1889120_P_1;1170;2;10.0;0;0;;;0
1419;1889120_P_2;1170;2;0.4;0;0;;;0
1420;1889120_P;1170;0;10.0;0;0;;;0
1421;1885465_P_1;1171;2;10.0;0;0;;;0
1422;1885465_P_2;1171;2;0.4;0;0;;;0
1423;1885465_P;1171;0;10.0;0;0;;;0
1424;7845627_P_1;1172;2;10.0;0;0;;;0
1425;7845627_P_2;1172;2;0.4;0;0;;;0
1426;7845627_P;1172;0;10.0;0;0;;;0
1427;1886716_P_1;1173;2;10.0;0;0;;;0
1428;1886716_P_2;1173;2;0.4;0;0;;;0
1429;1886716_P;1173;0;10.0;0;0;;;0
1430;1890776_P_1;1174;2;10.0;0;0;;;0
1431;1890776_P_2;1174;2;0.4;0;0;;;0
1432;1890776_P;1174;0;10.0;0;0;;;0
1433;1890292_P_1;1175;2;10.0;0;0;;;0
1434;1890292_P_2;1175;2;0.4;0;0;;;0
1435;1890292_P;1175;0;10.0;0;0;;;0
1436;1890782_P_1;1176;2;10.0;0;0;;;0
1437;1890782_P_2;1176;2;0.4;0;0;;;0
1438;1890782_P;1176;0;10.0;0;0;;;0
1439;1886722_P_1;1177;2;10.0;0;0;;;0
1440;1886722_P_2;1177;2;0.4;0;0;;;0
1441;1886722_P;1177;0;10.0;0;0;;;0
1442;1890294_P_1;1178;2;10.0;0;0;;;0
1443;1890294_P_2;1178;2;0.4;0;0;;;0
1444;1890294_P;1178;0;10.0;0;0;;;0
1445;1889154_P_1;1179;2;10.0;0;0;;;0
1446;1889154_P_2;1179;2;0.4;0;0;;;0
1447;1889154_P;1179;0;10.0;0;0;;;0
1448;1890295_P_1;1180;2;10.0;0;0;;;0
1449;1890295_P_2;1180;2;0.4;0;0;;;0
1450;1890295_P;1180;0;10.0;0;0;;;0
1451;1882819_P_1;1181;2;10.0;0;0;;;0
1452;1882819_P_2;1181;2;0.4;0;0;;;0
1453;1882819_P;1181;0;10.0;0;0;;;0
1454;1882815_P_1;1182;2;10.0;0;0;;;0
1455;1882815_P_2;1182;2;0.4;0;0;;;0
1456;1882815_P;1182;0;10.0;0;0;;;0
1457;1882817_P_1;1183;2;10.0;0;0;;;0
1458;1882817_P_2;1183;2;0.4;0;0;;;0
1459;1882817_P;1183;0;10.0;0;0;;;0
1460;1895194_P_1;1184;2;10.0;0;0;;;0
1461;1895194_P_2;1184;2;0.4;0;0;;;0
1462;1895194_P;1184;0;10.0;0;0;;;0
1463;1882833_P_1;1185;2;10.0;0;0;;;0
1464;1882833_P_2;1185;2;0.4;0;0;;;0
1465;1882833_P;1185;0;10.0;0;0;;;0
1466;1882837_P_1;1186;2;10.0;0;0;;;0
1467;1882837_P_2;1186;2;0.4;0;0;;;0
1468;1882837_P;1186;0;10.0;0;0;;;0
1469;1882830_P_1;1187;2;10.0;0;0;;;0
1470;1882830_P_2;1187;2;0.4;0;0;;;0
1471;1882830_P;1187;0;10.0;0;0;;;0
1472;1886046_P_1;1188;2;10.0;0;0;;;0
1473;1886046_P_2;1188;2;0.4;0;0;;;0
1474;1886046_P;1188;0;10.0;0;0;;;0
1475;1882832_P_1;1189;2;10.0;0;0;;;0
1476;1882832_P_2;1189;2;0.4;0;0;;;0
1477;1882832_P;1189;0;10.0;0;0;;;0
1478;1883469_P_1;1190;2;10.0;0;0;;;0
1479;1883469_P_2;1190;2;0.4;0;0;;;0
1480;1883469_P;1190;0;10.0;0;0;;;0
1481;1883473_P_1;1191;2;10.0;0;0;;;0
1482;1883473_P_2;1191;2;0.4;0;0;;;0
1483;1883473_P;1191;0;10.0;0;0;;;0
1484;1884855_P_1;1192;2;10.0;0;0;;;0
1485;1884855_P_2;1192;2;0.4;0;0;;;0
1486;1884855_P;1192;0;10.0;0;0;;;0
1487;1883474_P_1;1193;2;10.0;0;0;;;0
1488;1883474_P_2;1193;2;0.4;0;0;;;0
1489;1883474_P;1193;0;10.0;0;0;;;0
1490;1884853_P_1;1194;2;10.0;0;0;;;0
1491;1884853_P_2;1194;2;0.4;0;0;;;0
1492;1884853_P;1194;0;10.0;0;0;;;0
1493;1883805_P_1;1195;2;10.0;0;0;;;0
1494;1883805_P_2;1195;2;0.4;0;0;;;0
1495;1883805_P;1195;0;10.0;0;0;;;0
1496;1886698_P_1;1196;2;10.0;0;0;;;0
1497;1886698_P_2;1196;2;0.4;0;0;;;0
1498;1886698_P;1196;0;10.0;0;0;;;0
1499;1883548_P_1;1197;2;10.0;0;0;;;0
1500;1883548_P_2;1197;2;0.4;0;0;;;0
1501;1883548_P;1197;0;10.0;0;0;;;0
1502;1895012_P_1;1198;2;10.0;0;0;;;0
1503;1895012_P_2;1198;2;0.4;0;0;;;0
1504;1895012_P;1198;0;10.0;0;0;;;0
1505;1886045_P_1;1199;2;10.0;0;0;;;0
1506;1886045_P_2;1199;2;0.4;0;0;;;0
1507;1886045_P;1199;0;10.0;0;0;;;0
1508;1886038_P_1;1200;2;10.0;0;0;;;0
1509;1886038_P_2;1200;2;0.4;0;0;;;0
1510;1886038_P;1200;0;10.0;0;0;;;0
1511;1886105_P_1;1201;2;10.0;0;0;;;0
1512;1886105_P_2;1201;2;0.4;0;0;;;0
1513;1886105_P;1201;0;10.0;0;0;;;0
1514;1895186_P_1;1202;2;10.0;0;0;;;0
1515;1895186_P_2;1202;2;0.4;0;0;;;0
1516;1895186_P;1202;0;10.0;0;0;;;0
1517;1890269_P_1;1203;2;10.0;0;0;;;0
1518;1890269_P_2;1203;2;0.4;0;0;;;0
1519;1890269_P;1203;0;10.0;0;0;;;0
1520;1885237_P_1;1204;2;10.0;0;0;;;0
1521;1885237_P_2;1204;2;0.4;0;0;;;0
1522;1885237_P;1204;0;10.0;0;0;;;0
1523;1885247_P_1;1205;2;10.0;0;0;;;0
1524;1885247_P_2;1205;2;0.4;0;0;;;0
1525;1885247_P;1205;0;10.0;0;0;;;0
1526;1885253_P_1;1206;2;10.0;0;0;;;0
1527;1885253_P_2;1206;2;0.4;0;0;;;0
1528;1885253_P;1206;0;10.0;0;0;;;0
1529;1885829_P_1;1207;2;10.0;0;0;;;0
1530;1885829_P_2;1207;2;0.4;0;0;;;0
1531;1885829_P;1207;0;10.0;0;0;;;0
1532;1893711_P_1;1208;2;10.0;0;0;;;0
1533;1893711_P_2;1208;2;0.4;0;0;;;0
1534;1893711_P;1208;0;10.0;0;0;;;0
1535;1885951_P_1;1209;2;10.0;0;0;;;0
1536;1885951_P_2;1209;2;0.4;0;0;;;0
1537;1885951_P;1209;0;10.0;0;0;;;0
1538;1885963_P_1;1210;2;10.0;0;0;;;0
1539;1885963_P_2;1210;2;0.4;0;0;;;0
1540;1885963_P;1210;0;10.0;0;0;;;0
1541;7848421_P_1;1211;2;10.0;0;0;;;0
1542;7848421_P_2;1211;2;0.4;0;0;;;0
1543;7848421_P;1211;0;10.0;0;0;;;0
1544;1886120_P_1;1212;2;10.0;0;0;;;0
1545;1886120_P_2;1212;2;0.4;0;0;;;0
1546;1886120_P;1212;0;10.0;0;0;;;0
1547;1886889_P_1;1213;2;10.0;0;0;;;0
1548;1886889_P_2;1213;2;0.4;0;0;;;0
1549;1886889_P;1213;0;10.0;0;0;;;0
1550;1889635_P_1;1214;2;10.0;0;0;;;0
1551;1889635_P_2;1214;2;0.4;0;0;;;0
1552;1889635_P;1214;0;10.0;0;0;;;0
1553;1889640_P_1;1215;2;10.0;0;0;;;0
1554;1889640_P_2;1215;2;0.4;0;0;;;0
1555;1889640_P;1215;0;10.0;0;0;;;0
1556;1889458_P_1;1216;2;10.0;0;0;;;0
1557;1889458_P_2;1216;2;0.4;0;0;;;0
1558;1889458_P;1216;0;10.0;0;0;;;0
1559;1891771_P_1;1217;2;10.0;0;0;;;0
1560;1891771_P_2;1217;2;0.4;0;0;;;0
1561;1891771_P;1217;0;10.0;0;0;;;0
1562;1895151_P_1;1218;2;10.0;0;0;;;0
1563;1895151_P_2;1218;2;0.4;0;0;;;0
1564;1895151_P;1218;0;10.0;0;0;;;0
1565;1895155_P_1;1219;2;10.0;0;0;;;0
1566;1895155_P_2;1219;2;0.4;0;0;;;0
1567;1895155_P;1219;0;10.0;0;0;;;0
1568;1895267_P_1;1220;2;10.0;0;0;;;0
1569;1895267_P_2;1220;2;0.4;0;0;;;0
1570;1895267_P;1220;0;10.0;0;0;;;0
1571;1884437_P_1;1221;2;10.0;0;0;;;0
1572;1884437_P_2;1221;2;0.4;0;0;;;0
1573;1884437_P;1221;0;10.0;0;0;;;0
1574;1894774_P_1;1222;2;10.0;0;0;;;0
1575;1894774_P_2;1222;2;0.4;0;0;;;0
1576;1894774_P;1222;0;10.0;0;0;;;0
1577;6126336_P_1;1223;2;10.0;0;0;;;0
1578;6126336_P_2;1223;2;0.4;0;0;;;0
...

$$IntGrf;ID(a:40);loc_name(a:40);fold_id(p);iCol(i);iVis(i);iLevel(i);rCenterX(r);rCenterY(r);sSymNam(a:40);pDataObj(p);iRot(i);rSizeX(r);rSizeY(r)
1953;gno Nodo0;3;13;1;1;206.1673600001086;725.5468800000244;PrimSubstat;1156;0;1;1
1954;gno 1884802_P;3;1;1;1;209.06591999982993;724.8086400000204;PointTerm;1602;0;1;1
1955;gno 1882751_P;3;1;1;1;548.4806399999798;484.54496000002223;PointTerm;1603;0;1;1
1956;gno 1882810_P;3;1;1;1;539.1974399999526;467.0515200000125;PointTerm;1604;0;1;1
1957;gno 1882811_P;3;1;1;1;522.0569600000999;440.0195200000212;PointTerm;1605;0;1;1
1958;gno 1882812_P;3;1;1;1;507.0204799999374;423.08832000000507;PointTerm;1606;0;1;1
1959;gno 1882813_P;3;1;1;1;527.5948799999242;424.7715200000073;PointTerm;1607;0;1;1
1960;gno 1882814_P;3;1;1;1;546.8959999998333;451.4572799999996;PointTerm;1608;0;1;1
1961;gno 1882816_P;3;1;1;1;494.0147199999956;395.505600000007;PointTerm;1609;0;1;1
1962;gno 1882818_P;3;1;1;1;512.2035199997299;413.2521600000132;PointTerm;1610;0;1;1
1963;gno 1882820_P;3;1;1;1;563.68448000012;512.5552000000084;PointTerm;1611;0;1;1
1964;gno 1882821_P;3;1;1;1;557.6415999998972;501.97408000002497;PointTerm;1612;0;1;1
1965;gno 1882822_P;3;1;1;1;416.2540799998169;366.95552000000475;PointTerm;1613;0;1;1
1966;gno 1882823_P;3;1;1;1;403.9343999997982;373.13024000002315;PointTerm;1614;0;1;1
1967;gno 1882824_P;3;1;1;1;409.9724799998512;350.5801600000211;PointTerm;1615;0;1;1
1968;gno 1882825_P;3;1;1;1;415.9705600000052;328.06944000000726;PointTerm;1616;0;1;1
1969;gno 1882826_P;3;1;1;1;416.52639999983876;326.32928000001016;PointTerm;1617;0;1;1
1970;gno 1882827_P;3;1;1;1;412.7606399997603;327.1756800000105;PointTerm;1618;0;1;1
1971;gno 1882828_P;3;1;1;1;388.34687999997186;319.8854400000073;PointTerm;1619;0;1;1
1972;gno 1882829_P;3;1;1;1;371.7292799997267;314.6579200000019;PointTerm;1620;0;1;1
1973;gno 1882831_P;3;1;1;1;379.2399999997542;290.12704000001577;PointTerm;1621;0;1;1
1974;gno 1882834_P;3;1;1;1;362.9648000000998;311.89856000000304;PointTerm;1622;0;1;1
1975;gno 1882835_P;3;1;1;1;339.85279999978957;305.4582400000072;PointTerm;1623;0;1;1
1976;gno 1882836_P;3;1;1;1;324.01279999976396;300.9344000000169;PointTerm;1624;0;1;1
1977;gno 1883452_P;3;1;1;1;267.96927999976106;669.6755200000268;PointTerm;1625;0;1;1
1978;gno 1883453_P;3;1;1;1;261.85855999983687;649.8265600000082;PointTerm;1626;0;1;1
1979;gno 1883454_P;3;1;1;1;253.2246400000986;653.2768000000146;PointTerm;1627;0;1;1
1980;gno 1883455_P;3;1;1;1;133.9302400001543;384.3379200000072;PointTerm;1628;0;1;1
1981;gno 1883461_P;3;1;1;1;328.65984000000026;284.75808000001734;PointTerm;1629;0;1;1
1982;gno 1883462_P;3;1;1;1;335.7206400000905;260.8144000000152;PointTerm;1630;0;1;1
1983;gno 1883463_P;3;1;1;1;314.07648000003974;298.2364800000141;PointTerm;1631;0;1;1
1984;gno 1883464_P;3;1;1;1;288.79103999997824;291.6953600000056;PointTerm;1632;0;1;1
1985;gno 1883465_P;3;1;1;1;268.71871999992436;286.9411200000229;PointTerm;1633;0;1;1
1986;gno 1883466_P;3;1;1;1;248.16895999992994;281.9948800000134;PointTerm;1634;0;1;1
1987;gno 1883467_P;3;1;1;1;227.45183999995788;276.2563200000159;PointTerm;1635;0;1;1
1988;gno 1883468_P;3;1;1;1;208.84960000012143;270.4745600000251;PointTerm;1636;0;1;1
1989;gno 1883470_P;3;1;1;1;168.52672000004532;258.3654400000057;PointTerm;1637;0;1;1
1990;gno 1883471_P;3;1;1;1;144.02591999987635;251.10816000000113;PointTerm;1638;0;1;1
1991;gno 1883472_P;3;1;1;1;124.37887999976738;245.08480000000077;PointTerm;1639;0;1;1
1992;gno 1883549_P;3;1;1;1;260.017919999882;684.6896000000129;PointTerm;1640;0;1;1
1993;gno 1883550_P;3;1;1;1;274.0236800000275;680.806720000021;PointTerm;1641;0;1;1
1994;gno 1883551_P;3;1;1;1;243.06751999984044;689.3692800000224;PointTerm;1642;0;1;1
1995;gno 1883552_P;3;1;1;1;291.0140799999681;677.1152000000029;PointTerm;1643;0;1;1
1996;gno 1883734_P;3;1;1;1;134.13951999973506;394.31200000001354;PointTerm;1644;0;1;1
1997;gno 1883800_P;3;1;1;1;132.3532799997338;218.0652800000189;PointTerm;1645;0;1;1
1998;gno 1883801_P;3;1;1;1;121.98783999974694;244.30048000002103;PointTerm;1646;0;1;1
1999;gno 1883802_P;3;1;1;1;78.46848000008322;231.96160000000532;PointTerm;1647;0;1;1
2000;gno 1883804_P;3;1;1;1;83.82720000008703;213.67808000002242;PointTerm;1648;0;1;1
2001;gno 1884485_P;3;2;1;1;319.3459200001598;668.1609600000229;CircTerm1;1649;0;1;1
2002;gno 1884521_P;3;1;1;1;212.1167999998761;706.8086400000198;PointTerm;1650;0;1;1
2003;gno 1884566_P;3;2;1;1;546.0095999997066;525.3708800000254;CircTerm1;1651;0;1;1
2004;gno 1884803_P;3;1;1;1;212.37311999993835;722.8252800000234;PointTerm;1652;0;1;1
2005;gno 1884804_P;3;1;1;1;218.83231999981945;717.3948800000005;PointTerm;1653;0;1;1
2006;gno 1884854_P;3;1;1;1;95.14687999990201;236.56864000000155;PointTerm;1654;0;1;1
2007;gno 1884856_P;3;1;1;1;71.52768000014476;229.9532800000179;PointTerm;1655;0;1;1
2008;gno 1884893_P;3;1;1;1;649.3507199998021;498.1366400000127;PointTerm;1656;0;1;1
2009;gno 1884894_P;3;1;1;1;669.7776000000886;488.50784000001113;PointTerm;1657;0;1;1
2010;gno 1884956_P;3;1;1;1;304.9894400000994;673.2451200000185;PointTerm;1658;0;1;1
2011;gno 1884975_P;3;1;1;1;209.4150399998398;713.5695999999996;PointTerm;1659;0;1;1
2012;gno 1885089_P;3;1;1;1;20.003520000045683;358.1795200000215;PointTerm;1660;0;1;1
2013;gno 1885090_P;3;1;1;1;30.527359999723558;342.32000000000085;PointTerm;1661;0;1;1
2014;gno 1885092_P;3;1;1;1;38.35295999988375;328.4742400000198;PointTerm;1662;0;1;1
2015;gno 1885093_P;3;1;1;1;689.3926399998236;479.3254400000251;PointTerm;1663;0;1;1
2016;gno 1885094_P;3;1;1;1;691.5088000000651;478.2774399999994;PointTerm;1664;0;1;1
2017;gno 1885095_P;3;1;1;1;690.1651200000742;480.6915200000219;PointTerm;1665;0;1;1
2018;gno 1885096_P;3;1;1;1;698.4105599999566;494.5606400000031;PointTerm;1666;0;1;1
2019;gno 1885238_P;3;1;1;1;710.3315199997269;469.09952000001454;PointTerm;1667;0;1;1
2020;gno 1885239_P;3;1;1;1;730.1276799998959;459.62688000000185;PointTerm;1668;0;1;1
2021;gno 1885240_P;3;1;1;1;750.4812799998035;449.53376000000844;PointTerm;1669;0;1;1
2022;gno 1885241_P;3;1;1;1;769.8895999997148;440.37664000001087;PointTerm;1670;0;1;1
2023;gno 1885242_P;3;1;1;1;788.6527999999089;431.56416000002196;PointTerm;1671;0;1;1
2024;gno 1885243_P;3;1;1;1;809.6291199999541;421.7116800000156;PointTerm;1672;0;1;1
2025;gno 1885244_P;3;1;1;1;824.3708800000604;414.8313600000222;PointTerm;1673;0;1;1
2026;gno 1885245_P;3;1;1;1;826.5571199999613;413.82432000000335;PointTerm;1674;0;1;1
2027;gno 1885246_P;3;1;1;1;825.5900799999836;416.76608000000215;PointTerm;1675;0;1;1
2028;gno 1885252_P;3;1;1;1;293.5145599999487;681.1040000000048;PointTerm;1676;0;1;1
2029;gno 1885462_P;3;1;1;1;37.00351999987106;323.3657600000015;PointTerm;1677;0;1;1
2030;gno 1885463_P;3;1;1;1;50.57727999974304;332.68736000002264;PointTerm;1678;0;1;1
2031;gno 1885464_P;3;1;1;1;63.96447999986776;341.1993600000187;PointTerm;1679;0;1;1
2032;gno 1885530_P;3;1;1;1;200.3561599999557;717.8457600000172;PointTerm;1680;0;1;1
2033;gno 1885717_P;3;1;1;1;504.778559999977;421.0176000000274;PointTerm;1681;0;1;1
2034;gno 1885718_P;3;1;1;1;501.28543999971953;418.26016000001687;PointTerm;1682;0;1;1
2035;gno 1885719_P;3;1;1;1;505.6150400000661;420.0585600000011;PointTerm;1683;0;1;1
2036;gno 1885765_P;3;1;1;1;434.48671999976796;270.5219200000215;PointTerm;1684;0;1;1
2037;gno 1885766_P;3;1;1;1;440.3817600000366;251.8451200000129;PointTerm;1685;0;1;1
2038;gno 1885767_P;3;1;1;1;447.98432000015964;256.57184000002076;PointTerm;1686;0;1;1
2039;gno 1885768_P;3;1;1;1;455.35487999995894;251.9043200000226;PointTerm;1687;0;1;1
2040;gno 1885769_P;3;1;1;1;467.37567999980456;242.89568000000372;PointTerm;1688;0;1;1
2041;gno 1885826_P;3;1;1;1;478.85408000001917;234.28704000002654;PointTerm;1689;0;1;1
2042;gno 1885827_P;3;1;1;1;479.631039999731;233.70784000002232;PointTerm;1690;0;1;1
2043;gno 1885828_P;3;1;1;1;479.98143999984677;235.86944000001608;PointTerm;1691;0;1;1
2044;gno 1885830_P;3;1;1;1;600.8959999999206;432.10432000000765;PointTerm;1692;0;1;1
2045;gno 1885831_P;3;1;1;1;591.2489600000299;414.1004800000019;PointTerm;1693;0;1;1
2046;gno 1885832_P;3;1;1;1;582.7094400001442;398.6012800000083;PointTerm;1694;0;1;1
2047;gno 1885833_P;3;1;1;1;581.383360000018;395.9468800000252;PointTerm;1695;0;1;1
2048;gno 1885834_P;3;1;1;1;583.7427199999183;398.1155200000046;PointTerm;1696;0;1;1
2049;gno 1885835_P;3;1;1;1;654.5471999997972;357.1782400000245;PointTerm;1697;0;1;1
2050;gno 1885836_P;3;1;1;1;661.7116799998257;353.1788800000015;PointTerm;1698;0;1;1
2051;gno 1885837_P;3;1;1;1;597.7574399998957;390.518400000019;PointTerm;1699;0;1;1
2052;gno 1885838_P;3;1;1;1;613.4447999997974;380.9664000000055;PointTerm;1700;0;1;1
2053;gno 1885839_P;3;1;1;1;624.0998399998716;374.313600000022;PointTerm;1701;0;1;1
2054;gno 1885840_P;3;1;1;1;639.9481600001309;365.1580800000147;PointTerm;1702;0;1;1
2055;gno 1885948_P;3;1;1;1;228.9113599999837;271.7072000000087;PointTerm;1703;0;1;1
2056;gno 1885949_P;3;1;1;1;234.77120000006835;252.11968000002116;PointTerm;1704;0;1;1
2057;gno 1885950_P;3;1;1;1;240.29952000000776;233.75712000000703;PointTerm;1705;0;1;1
2058;gno 1885962_P;3;1;1;1;357.82591999986835;193.7680000000057;PointTerm;1706;0;1;1
2059;gno 1886028_P;3;2;1;1;142.02079999995476;185.44479999999908;CircTerm1;1707;0;1;1
2060;gno 1886029_P;3;1;1;1;148.3494399999472;164.87904000001663;PointTerm;1708;0;1;1
2061;gno 1886030_P;3;1;1;1;148.86751999983971;163.52000000000544;PointTerm;1709;0;1;1
2062;gno 1886031_P;3;1;1;1;150.7350399997449;165.54624000002605;PointTerm;1710;0;1;1
2063;gno 1886032_P;3;1;1;1;133.0355199997939;160.40160000000014;PointTerm;1711;0;1;1
2064;gno 1886033_P;3;1;1;1;152.27391999997053;152.13280000000395;PointTerm;1712;0;1;1
2065;gno 1886034_P;3;1;1;1;153.45311999999467;147.9155200000264;PointTerm;1713;0;1;1
2066;gno 1886035_P;3;1;1;1;154.79872000014439;152.84832000000392;PointTerm;1714;0;1;1
2067;gno 1886036_P;3;1;1;1;170.88991999980863;157.53503999999907;PointTerm;1715;0;1;1
2068;gno 1886037_P;3;1;1;1;186.96095999985118;162.0313600000145;PointTerm;1716;0;1;1
2069;gno 1886039_P;3;1;1;1;115.12704000006124;155.11008000001425;PointTerm;1717;0;1;1
2070;gno 1886040_P;3;1;1;1;96.35135999997146;149.64095999999927;PointTerm;1718;0;1;1
2071;gno 1886041_P;3;1;1;1;78.32255999983317;144.56320000002165;PointTerm;1719;0;1;1
2072;gno 1886042_P;3;1;1;1;59.752319999915926;139.44064000000367;PointTerm;1720;0;1;1
2073;gno 1886043_P;3;1;1;1;49.52000000002954;139.96160000002078;PointTerm;1721;0;1;1
2074;gno 1886044_P;3;1;1;1;33.764159999918775;133.9760000000183;PointTerm;1722;0;1;1
2075;gno 1886047_P;3;1;1;1;342.00288000010914;237.36288000000627;PointTerm;1723;0;1;1
2076;gno 1886104_P;3;1;1;1;351.07135999987804;217.9795200000001;PointTerm;1724;0;1;1
2077;gno 1886109_P;3;1;1;1;365.102719999868;169.31936000000292;PointTerm;1725;0;1;1
2078;gno 1886110_P;3;1;1;1;354.6371200000067;173.79584000002524;PointTerm;1726;0;1;1
2079;gno 1886111_P;3;1;1;1;334.4051200001559;168.0256000000213;PointTerm;1727;0;1;1
2080;gno 1886112_P;3;1;1;1;314.8063999997248;162.84384000002206;PointTerm;1728;0;1;1
2081;gno 1886113_P;3;1;1;1;299.32543999984773;157.8089600000112;PointTerm;1729;0;1;1
2082;gno 1886114_P;3;1;1;1;280.2447999997639;152.02880000001073;PointTerm;1730;0;1;1
2083;gno 1886115_P;3;1;1;1;260.5856000000131;146.29216000000156;PointTerm;1731;0;1;1
2084;gno 1886116_P;3;1;1;1;254.29152000015165;144.344000000018;PointTerm;1732;0;1;1
2085;gno 1886117_P;3;1;1;1;252.8870400001324;143.9827200000252;PointTerm;1733;0;1;1
2086;gno 1886118_P;3;1;1;1;254.84800000003816;142.06240000001458;PointTerm;1734;0;1;1
2087;gno 1886119_P;3;1;1;1;258.76512000013463;126.50464000000738;PointTerm;1735;0;1;1
2088;gno 1886136_P;3;1;1;1;834.5737599997847;432.7084800000023;PointTerm;1736;0;1;1
2089;gno 1886137_P;3;1;1;1;845.8617599999343;451.0800000000188;PointTerm;1737;0;1;1
2090;gno 1886138_P;3;1;1;1;857.0291199998792;470.4928000000166;PointTerm;1738;0;1;1
2091;gno 1886139_P;3;1;1;1;866.281600000093;485.83072000002403;PointTerm;1739;0;1;1
2092;gno 1886140_P;3;1;1;1;868.614720000096;490.01504000000295;PointTerm;1740;0;1;1
2093;gno 1886141_P;3;1;1;1;868.1814399997165;484.7667200000103;PointTerm;1741;0;1;1
2094;gno 1886171_P;3;1;1;1;578.3702399999129;394.25216000000773;PointTerm;1742;0;1;1
2095;gno 1886172_P;3;1;1;1;567.855039999813;376.44064000002686;PointTerm;1743;0;1;1
2096;gno 1886173_P;3;1;1;1;553.2118400001309;362.84095999999977;PointTerm;1744;0;1;1
2097;gno 1886174_P;3;1;1;1;537.0940799998607;348.9075200000116;PointTerm;1745;0;1;1
2098;gno 1886462_P;3;1;1;1;885.0403199999164;475.94656000001123;PointTerm;1746;0;1;1
2099;gno 1886546_P;3;1;1;1;904.9328000000969;465.97664000000805;PointTerm;1747;0;1;1
2100;gno 1886547_P;3;1;1;1;916.8361600000026;459.68160000001035;PointTerm;1748;0;1;1
2101;gno 1886694_P;3;2;1;1;12.920000000121945;370.1443200000085;CircTerm1;1749;0;1;1
2102;gno 1886711_P;3;1;1;1;340.6953600001543;659.3904000000066;PointTerm;1750;0;1;1
2103;gno 1886712_P;3;1;1;1;357.56639999999607;651.048320000001;PointTerm;1751;0;1;1
2104;gno 1886723_P;3;1;1;1;421.7382399997405;457.02208000000155;PointTerm;1752;0;1;1
2105;gno 1886818_P;3;1;1;1;305.99264000011317;404.7459200000105;PointTerm;1753;0;1;1
2106;gno 1886819_P;3;1;1;1;284.0335999999297;385.2972800000032;PointTerm;1754;0;1;1
2107;gno 1886820_P;3;1;1;1;269.37567999993917;380.68896000001473;PointTerm;1755;0;1;1
2108;gno 1886821_P;3;1;1;1;250.22016000002623;375.969600000019;PointTerm;1756;0;1;1
2109;gno 1889118_P;3;1;1;1;0.0;386.4121600000203;PointTerm;1757;0;1;1
2110;gno 1889119_P;3;1;1;1;3.7379199998213153;386.2985600000002;PointTerm;1758;0;1;1
2111;gno 1889153_P;3;1;1;1;437.51775999999154;447.6883200000259;PointTerm;1759;0;1;1
2112;gno 1889155_P;3;1;1;1;570.6822399997691;519.8172800000123;PointTerm;1760;0;1;1
2113;gno 1889156_P;3;1;1;1;600.153599999885;502.1644800000047;PointTerm;1761;0;1;1
2114;gno 1889157_P;3;1;1;1;621.3465599998926;489.4960000000026;PointTerm;1762;0;1;1
2115;gno 1889158_P;3;1;1;1;509.99487999979465;556.7788800000244;PointTerm;1763;0;1;1
2116;gno 1889165_P;3;1;1;1;528.2172799998079;545.1808000000256;PointTerm;1764;0;1;1
2117;gno 1889187_P;3;1;1;1;252.54271999983757;522.058560000005;PointTerm;1765;0;1;1
2118;gno 1889188_P;3;1;1;1;134.21023999990211;412.2790400000156;PointTerm;1766;0;1;1
2119;gno 1889189_P;3;1;1;1;134.54400000000533;405.46240000000466;PointTerm;1767;0;1;1
2120;gno 1889208_P;3;1;1;1;548.9203199999793;533.5648000000219;PointTerm;1768;0;1;1
2121;gno 1889214_P;3;1;1;1;309.62943999975323;654.614080000016;PointTerm;1769;0;1;1
2122;gno 1889215_P;3;1;1;1;303.69119999977556;640.8662400000082;PointTerm;1770;0;1;1
2123;gno 1889216_P;3;1;1;1;297.8339199999027;627.6988800000254;PointTerm;1771;0;1;1
2124;gno 1889217_P;3;2;1;1;302.4147199998879;631.9619200000091;CircTerm1;1772;0;1;1
2125;gno 1889218_P;3;1;1;1;321.4905599998019;623.8512000000185;PointTerm;1773;0;1;1
2126;gno 1889454_P;3;1;1;1;637.7292799998031;509.0652800000157;PointTerm;1774;0;1;1
2127;gno 1889455_P;3;1;1;1;651.8144000001485;528.2272000000034;PointTerm;1775;0;1;1
2128;gno 1889456_P;3;1;1;1;663.8192000000345;545.0147200000117;PointTerm;1776;0;1;1
2129;gno 1889457_P;3;1;1;1;675.7372799997938;560.2604800000108;PointTerm;1777;0;1;1
2130;gno 1889630_P;3;1;1;1;539.0313600000809;343.0505600000231;PointTerm;1778;0;1;1
2131;gno 1889631_P;3;1;1;1;580.7692799999131;306.03136000001996;PointTerm;1779;0;1;1
2132;gno 1889632_P;3;1;1;1;593.695359999856;294.5219200000224;PointTerm;1780;0;1;1
2133;gno 1889633_P;3;1;1;1;596.0211199999321;292.317120000007;PointTerm;1781;0;1;1
2134;gno 1889634_P;3;1;1;1;594.6687999999085;290.8768000000066;PointTerm;1782;0;1;1
2135;gno 1889636_P;3;1;1;1;614.0358399998149;276.56544000001304;PointTerm;1783;0;1;1
...